.MODEL QN1 NPN(BF=14.4 IS=8E-16)
.MODEL DN1 D(N=0.717 IS=8E-16 TT=22.2N)
.MODEL DN2 D(N=0.717 IS=8E-16 TT=13.1N)
.MODEL DN3 D(N=0.001 IS=1E-14)
.MODEL DN4 D(RS=2 IS=2E-14)
.PARAM L1=70MH
.PARAM L2=25MH
.PARAM M=25MH